dss/export/capas-pablo/cooperativa-reducido/Load.dss
New Load.carga_idseta_113 phases=3 bus1=x_113.1.2.3.0 kv=0.38 kw=23.655877446505947 pf=0.9 status=variable model=1 CVRwatts=0.8 CVRvars=3.0 class=1 daily=334 conn=wye
New Load.carga_idseta_114 phases=3 bus1=x_114.1.2.3.0 kv=0.38 kw=50.93634692877814 pf=0.9 status=variable model=1 CVRwatts=0.8 CVRvars=3.0 class=1 daily=334 conn=wye
New Load.carga_idseta_17 phases=3 bus1=x_17.1.2.3.0 kv=0.38 kw=224.2118693511162 pf=0.9 status=variable model=1 CVRwatts=0.8 CVRvars=3.0 class=1 daily=334 conn=wye
New Load.carga_idseta_18 phases=3 bus1=x_18.1.2.3.0 kv=0.38 kw=122.27175072626552 pf=0.9 status=variable model=1 CVRwatts=0.8 CVRvars=3.0 class=1 daily=334 conn=wye
New Load.carga_idseta_200 phases=3 bus1=x_200.1.2.3.0 kv=0.38 kw=48.468191810849376 pf=0.9 status=variable model=1 CVRwatts=0.8 CVRvars=3.0 class=1 daily=334 conn=wye
New Load.carga_idseta_378 phases=3 bus1=x_378.1.2.3.0 kv=0.38 kw=116.14426960154006 pf=0.9 status=variable model=1 CVRwatts=0.8 CVRvars=3.0 class=1 daily=334 conn=wye
New Load.carga_idseta_49 phases=3 bus1=x_49.1.2.3.0 kv=0.38 kw=166.5310025181304 pf=0.9 status=variable model=1 CVRwatts=0.8 CVRvars=3.0 class=1 daily=334 conn=wye
New Load.carga_idseta_50 phases=3 bus1=x_50.1.2.3.0 kv=0.38 kw=166.47175044990198 pf=0.9 status=variable model=1 CVRwatts=0.8 CVRvars=3.0 class=1 daily=334 conn=wye
New Load.carga_idseta_51 phases=3 bus1=x_51.1.2.3.0 kv=0.38 kw=191.19906874395912 pf=0.9 status=variable model=1 CVRwatts=0.8 CVRvars=3.0 class=1 daily=334 conn=wye
New Load.carga_idseta_52 phases=3 bus1=x_52.1.2.3.0 kv=0.38 kw=122.53532027114368 pf=0.9 status=variable model=1 CVRwatts=0.8 CVRvars=3.0 class=1 daily=334 conn=wye
New Load.carga_idseta_53 phases=3 bus1=x_53.1.2.3.0 kv=0.38 kw=127.75358862477778 pf=0.9 status=variable model=1 CVRwatts=0.8 CVRvars=3.0 class=1 daily=334 conn=wye
New Load.carga_idseta_54 phases=3 bus1=x_54.1.2.3.0 kv=0.38 kw=183.09297717535767 pf=0.9 status=variable model=1 CVRwatts=0.8 CVRvars=3.0 class=1 daily=334 conn=wye
New Load.carga_idseta_55 phases=3 bus1=x_55.1.2.3.0 kv=0.38 kw=46.83160882288502 pf=0.9 status=variable model=1 CVRwatts=0.8 CVRvars=3.0 class=1 daily=334 conn=wye
New Load.carga_idseta_56 phases=3 bus1=x_56.1.2.3.0 kv=0.38 kw=203.9530559983793 pf=0.9 status=variable model=1 CVRwatts=0.8 CVRvars=3.0 class=1 daily=334 conn=wye
New Load.carga_idseta_58 phases=3 bus1=x_58.1.2.3.0 kv=0.38 kw=153.36069797328872 pf=0.9 status=variable model=1 CVRwatts=0.8 CVRvars=3.0 class=1 daily=334 conn=wye
New Load.carga_idseta_6005 phases=3 bus1=x_6005.1.2.3.0 kv=0.38 kw=92.68494556757116 pf=0.9 status=variable model=1 CVRwatts=0.8 CVRvars=3.0 class=1 daily=334 conn=wye
New Load.carga_idseta_61 phases=3 bus1=x_61.1.2.3.0 kv=0.38 kw=207.78474422847776 pf=0.9 status=variable model=1 CVRwatts=0.8 CVRvars=3.0 class=1 daily=334 conn=wye
New Load.carga_idseta_62 phases=3 bus1=x_62.1.2.3.0 kv=0.38 kw=120.35692819859956 pf=0.9 status=variable model=1 CVRwatts=0.8 CVRvars=3.0 class=1 daily=334 conn=wye
New Load.carga_idseta_63 phases=3 bus1=x_63.1.2.3.0 kv=0.38 kw=85.99518274710562 pf=0.9 status=variable model=1 CVRwatts=0.8 CVRvars=3.0 class=1 daily=334 conn=wye
New Load.carga_idseta_65 phases=3 bus1=x_65.1.2.3.0 kv=0.38 kw=94.0105573560746 pf=0.9 status=variable model=1 CVRwatts=0.8 CVRvars=3.0 class=1 daily=334 conn=wye
New Load.carga_idseta_68 phases=3 bus1=x_68.1.2.3.0 kv=0.38 kw=74.03239448926381 pf=0.9 status=variable model=1 CVRwatts=0.8 CVRvars=3.0 class=1 daily=334 conn=wye
New Load.carga_idseta_73 phases=3 bus1=x_73.1.2.3.0 kv=0.38 kw=123.30355398334665 pf=0.9 status=variable model=1 CVRwatts=0.8 CVRvars=3.0 class=1 daily=334 conn=wye
New Load.carga_idseta_77 phases=3 bus1=x_77.1.2.3.0 kv=0.38 kw=122.8899949788599 pf=0.9 status=variable model=1 CVRwatts=0.8 CVRvars=3.0 class=1 daily=334 conn=wye
New Load.carga_idseta_78 phases=3 bus1=x_78.1.2.3.0 kv=0.38 kw=196.69144942426647 pf=0.9 status=variable model=1 CVRwatts=0.8 CVRvars=3.0 class=1 daily=334 conn=wye
New Load.carga_idseta_83 phases=3 bus1=x_83.1.2.3.0 kv=0.38 kw=146.53036472888817 pf=0.9 status=variable model=1 CVRwatts=0.8 CVRvars=3.0 class=1 daily=334 conn=wye
New Load.carga_idseta_86 phases=3 bus1=x_86.1.2.3.0 kv=0.38 kw=126.05162404428556 pf=0.9 status=variable model=1 CVRwatts=0.8 CVRvars=3.0 class=1 daily=334 conn=wye
New Load.carga_idseta_87 phases=3 bus1=x_87.1.2.3.0 kv=0.38 kw=76.68239216141083 pf=0.9 status=variable model=1 CVRwatts=0.8 CVRvars=3.0 class=1 daily=334 conn=wye
New Load.carga_idseta_88 phases=3 bus1=x_88.1.2.3.0 kv=0.38 kw=22.72214657821668 pf=0.9 status=variable model=1 CVRwatts=0.8 CVRvars=3.0 class=1 daily=334 conn=wye
New Load.carga_idseta_90 phases=3 bus1=x_90.1.2.3.0 kv=0.38 kw=87.74822669676031 pf=0.9 status=variable model=1 CVRwatts=0.8 CVRvars=3.0 class=1 daily=334 conn=wye
New Load.carga_idseta_97 phases=3 bus1=x_97.1.2.3.0 kv=0.38 kw=82.91611837399417 pf=0.9 status=variable model=1 CVRwatts=0.8 CVRvars=3.0 class=1 daily=334 conn=wye
